63

C          1.21511        2.20043        0.02816
N          0.02182        1.53535        0.01962
C         -1.13452        2.25073        0.16254
C         -1.13698        3.64897        0.27738
C          0.09652        4.31465        0.25848
C          1.29472        3.59486        0.13982
Fe        -0.02702       -0.44915       -0.17713
C         -0.07496       -2.17863       -0.11893
O         -0.10246       -3.34429       -0.01180
O         -2.28974        1.56768        0.18846
P         -2.15464       -0.16896        0.06417
C         -3.03694       -0.63933        1.62366
C         -3.21033       -2.16500        1.69863
O          2.33655        1.46340       -0.07757
P          2.11349       -0.26455        0.01246
C          3.28928       -0.74764       -1.34909
C          4.66702       -0.08152       -1.24071
C         -3.30893       -0.42529       -1.37357
C         -3.16738       -1.84283       -1.95097
C         -4.75904       -0.02360       -1.07784
C          2.93883       -0.65121        1.63276
C          2.58532       -2.08528        2.06225
C          2.53045        0.38115        2.69338
C          3.37224       -2.27823       -1.47662
C         -2.30980       -0.07032        2.84885
H         -0.00445       -0.52199        1.30013
H         -2.09366        4.17520        0.38404
H          2.27939        4.07839        0.13896
H          0.12575        5.41043        0.34974
H          2.77104       -0.34450       -2.24904
H          4.03146       -0.57359        1.44636
H         -4.03361       -0.15481        1.54027
H         -2.87784        0.28767       -2.11155
H          5.25806       -0.29632       -2.15423
H          4.58760        1.01667       -1.13241
H          5.24266       -0.47779       -0.37978
H          2.37600       -2.76424       -1.50299
H          3.90682       -2.54834       -2.40949
H          3.94215       -2.72236       -0.63628
H         -3.77282       -1.92925       -2.87578
H         -2.11610       -2.07143       -2.20961
H         -3.52560       -2.62116       -1.24908
H         -4.82595        0.99344       -0.64410
H         -5.34750       -0.02802       -2.01794
H         -5.24781       -0.73661       -0.38361
H         -3.72356       -2.43092        2.64461
H         -3.82331       -2.56633        0.86859
H         -2.23379       -2.68927        1.69142
H         -1.30758       -0.52995        2.96638
H         -2.18466        1.02818        2.78471
H         -2.89642       -0.29162        3.76327
H          2.81694       -2.84355        1.28980
H          3.15962       -2.34950        2.97287
H          1.50749       -2.16864        2.30487
H          2.87026        1.40161        2.43453
H          1.42853        0.39980        2.82534
H          2.98057        0.10735        3.66879
O         -0.58950        0.05365       -3.51187
C         -0.28474        1.26765       -4.22010
H          0.76097        1.59920       -4.04461
H         -0.97177        2.04695       -3.84546
H         -0.45797        1.12969       -5.30579
H         -0.12087       -0.69015       -3.93279
